REMARK  Name = 1gpk-hup.pdb
REMARK                            x       y       z     vdW  Elec       q    Type
REMARK                         _______ _______ _______ _____ _____    ______ ____
ROOT
ATOM      1  C   LIG    1        0.726  68.848  60.595  0.00  0.00    +0.268 C 
ATOM      2  C   LIG    1        0.003  68.825  61.859  0.00  0.00    +0.056 C 
ATOM      3  C   LIG    1        0.576  68.272  62.986  0.00  0.00    -0.015 C 
ATOM      4  C   LIG    1        1.908  67.694  62.988  0.00  0.00    +0.073 C 
ATOM      5  C   LIG    1        2.569  67.047  64.283  0.00  0.00    +0.067 C 
ATOM      6  C   LIG    1        3.321  68.130  65.111  0.00  0.00    +0.040 C 
ATOM      7  C   LIG    1        4.765  68.387  64.718  0.00  0.00    -0.046 C 
ATOM      8  C   LIG    1        5.453  69.459  65.536  0.00  0.00    +0.026 C 
ATOM      9  C   LIG    1        5.376  67.694  63.716  0.00  0.00    -0.030 C 
ATOM     10  C   LIG    1        4.657  66.598  62.902  0.00  0.00    +0.046 C 
ATOM     11  C   LIG    1        4.017  67.169  61.560  0.00  0.00    +0.048 C 
ATOM     12  C   LIG    1        3.563  65.967  63.794  0.00  0.00    -0.031 C 
ATOM     13  C   LIG    1        3.463  64.691  64.143  0.00  0.00    -0.033 C 
ATOM     14  C   LIG    1        4.352  63.553  63.742  0.00  0.00    +0.030 C 
ATOM     15  C   LIG    1        2.624  67.723  61.749  0.00  0.00    +0.035 C 
ATOM     16  O   LIG    1        0.265  69.331  59.526  0.00  0.00    -0.268 OA
ATOM     17  N   LIG    1        2.007  68.291  60.614  0.00  0.00    -0.184 NA
ENDROOT
BRANCH   5  18
ATOM     18  N   LIG    1        1.508  66.456  65.146  0.00  0.00    -0.320 NA
ATOM     19  H   LIG    1        0.665  66.329  64.605  0.00  0.00    +0.119 HD
ATOM     20  H   LIG    1        1.321  67.075  65.922  0.00  0.00    +0.119 HD
ENDBRANCH   5  18
TORSDOF 1
