REMARK  Name = 1hnn-skf.pdb
REMARK                            x       y       z     vdW  Elec       q    Type
REMARK                         _______ _______ _______ _____ _____    ______ ____
ROOT
ATOM      1  C   LIG    1       27.822  44.147  15.385  0.00  0.00    +0.121 A 
ATOM      2  C   LIG    1       28.193  43.286  16.410  0.00  0.00    +0.017 A 
ATOM      3  C   LIG    1       28.642  43.790  17.616  0.00  0.00    -0.009 A 
ATOM      4  C   LIG    1       28.720  45.174  17.807  0.00  0.00    -0.023 A 
ATOM      5  C   LIG    1       28.348  46.037  16.783  0.00  0.00    -0.003 A 
ATOM      6  C   LIG    1       29.488  45.705  18.978  0.00  0.00    +0.043 C 
ATOM      7  C   LIG    1       29.211  44.848  20.194  0.00  0.00    +0.074 C 
ATOM      8  N   LIG    1       29.700  43.483  19.860  0.00  0.00    -0.293 NA
ATOM      9  H   LIG    1       30.675  43.547  19.605  0.00  0.00    +0.124 HD
ATOM     10  C   LIG    1       28.965  42.843  18.744  0.00  0.00    +0.095 C 
ATOM     11  C   LIG    1       27.899  45.532  15.570  0.00  0.00    +0.020 A 
ENDROOT
BRANCH   1  12
ATOM     12  S   LIG    1       27.261  43.490  13.847  0.00  0.00    +0.057 S 
ATOM     13  O   LIG    1       25.866  43.133  13.873  0.00  0.00    -0.153 OA
ATOM     14  O   LIG    1       27.485  44.430  12.770  0.00  0.00    -0.153 OA
BRANCH  12  15
ATOM     15  N   LIG    1       28.105  42.187  13.573  0.00  0.00    -0.203 NA
ATOM     16  H   LIG    1       28.990  42.251  14.056  0.00  0.00    +0.144 HD
ATOM     17  H   LIG    1       28.268  42.093  12.581  0.00  0.00    +0.144 HD
ENDBRANCH  12  15
ENDBRANCH   1  12
TORSDOF 2
