REMARK  Name = 1l2s-stc.pdb
REMARK                            x       y       z     vdW  Elec       q    Type
REMARK                         _______ _______ _______ _____ _____    ______ ____
ROOT
ATOM      1  S   LIG    1       25.276   5.430  13.897  0.00  0.00    +0.060 S 
ATOM      2  O   LIG    1       25.367   6.087  12.625  0.00  0.00    -0.154 OA
ATOM      3  O   LIG    1       26.483   4.686  14.152  0.00  0.00    -0.154 OA
ENDROOT
BRANCH   1   4
ATOM      4  C   LIG    1       25.017   6.701  15.222  0.00  0.00    +0.181 C 
ATOM      5  S   LIG    1       24.629   7.763  17.216  0.00  0.00    -0.170 S 
ATOM      6  C   LIG    1       24.822   8.739  16.224  0.00  0.00    +0.054 C 
ATOM      7  C   LIG    1       25.060   8.087  15.010  0.00  0.00    +0.075 C 
ATOM      8  C   LIG    1       24.747   6.487  16.587  0.00  0.00    +0.168 C 
BRANCH   8   9
ATOM      9  C   LIG    1       24.601   5.179  17.296  0.00  0.00    +0.375 C 
ATOM     10  O   LIG    1       24.371   5.185  18.490  0.00  0.00    -0.245 OA
ATOM     11  O   LIG    1       24.718   4.021  16.652  0.00  0.00    -0.245 OA
ENDBRANCH   8   9
ENDBRANCH   1   4
BRANCH   1  12
ATOM     12  N   LIG    1       23.958   4.321  13.876  0.00  0.00    -0.218 N 
ATOM     13  H   LIG    1       24.028   3.423  14.333  0.00  0.00    +0.173 HD
BRANCH  12  18
ATOM     14 CL   LIG    1       18.938   5.867  11.082  0.00  0.00    -0.082 Cl
ATOM     15  C   LIG    1       20.411   5.433  11.883  0.00  0.00    +0.058 A 
ATOM     16  C   LIG    1       21.446   4.796  11.161  0.00  0.00    +0.013 A 
ATOM     17  C   LIG    1       22.637   4.426  11.822  0.00  0.00    +0.017 A 
ATOM     18  C   LIG    1       22.783   4.699  13.206  0.00  0.00    +0.065 A 
ATOM     19  C   LIG    1       21.752   5.346  13.922  0.00  0.00    +0.017 A 
ATOM     20  C   LIG    1       20.562   5.714  13.260  0.00  0.00    +0.013 A 
ENDBRANCH  12  18
ENDBRANCH   1  12
TORSDOF 4
