REMARK  Name = 1n2v-bdi.pdb
REMARK                            x       y       z     vdW  Elec       q    Type
REMARK                         _______ _______ _______ _____ _____    ______ ____
ROOT
ATOM      1  C   LIG    1       16.590  17.076  19.806  0.00  0.00    +0.117 A 
ATOM      2  N   LIG    1       17.490  17.322  20.605  0.00  0.00    -0.226 NA
ATOM      3  C   LIG    1       17.038  17.301  21.958  0.00  0.00    +0.159 A 
ATOM      4  C   LIG    1       17.702  17.527  23.277  0.00  0.00    +0.304 C 
ATOM      5  N   LIG    1       16.875  17.410  24.401  0.00  0.00    -0.082 NA
ATOM      6  N   LIG    1       15.412  17.079  24.315  0.00  0.00    -0.082 NA
ATOM      7  C   LIG    1       14.740  16.856  23.098  0.00  0.00    +0.302 C 
ATOM      8  O   LIG    1       13.508  16.576  23.010  0.00  0.00    -0.265 OA
ATOM      9  O   LIG    1       18.900  17.796  23.331  0.00  0.00    -0.265 OA
ATOM     10  C   LIG    1       15.646  16.983  21.839  0.00  0.00    +0.137 A 
ATOM     11  N   LIG    1       15.435  16.853  20.409  0.00  0.00    -0.337 N 
ATOM     12  H   LIG    1       14.560  16.631  19.955  0.00  0.00    +0.167 HD
ENDROOT
BRANCH   1  13
ATOM     13  C   LIG    1       16.744  17.026  18.284  0.00  0.00    +0.064 C 
BRANCH  13  14
ATOM     14  C   LIG    1       15.665  17.769  17.432  0.00  0.00    +0.008 C 
BRANCH  14  15
ATOM     15  C   LIG    1       16.342  18.373  16.158  0.00  0.00    +0.000 C 
ATOM     16  C   LIG    1       15.343  19.117  15.238  0.00  0.00    +0.000 C 
ENDBRANCH  14  15
ENDBRANCH  13  14
ENDBRANCH   1  13
TORSDOF 3
