REMARK  Name = 1sqn-ndr.pdb
REMARK                            x       y       z     vdW  Elec       q    Type
REMARK                         _______ _______ _______ _____ _____    ______ ____
ROOT
ATOM      1  C   LIG    1       -1.444   1.714  24.163  0.00  0.00    +0.003 C 
ATOM      2  C   LIG    1       -0.225   1.511  23.280  0.00  0.00    +0.004 C 
ATOM      3  C   LIG    1       -0.450   2.347  22.017  0.00  0.00    +0.039 C 
ATOM      4  C   LIG    1       -1.886   2.915  22.119  0.00  0.00    +0.142 C 
ATOM      5  C   LIG    1       -1.616   1.381  25.550  0.00  0.00    +0.001 C 
ATOM      6  C   LIG    1       -0.962   0.070  25.988  0.00  0.00    +0.004 C 
ATOM      7  C   LIG    1       -0.856  -0.121  27.459  0.00  0.00    +0.022 C 
ATOM      8  C   LIG    1       -2.191   0.216  28.106  0.00  0.00    -0.042 C 
ATOM      9  C   LIG    1       -2.586  -0.678  29.160  0.00  0.00    +0.029 C 
ATOM     10  C   LIG    1       -3.731  -0.334  29.959  0.00  0.00    +0.173 C 
ATOM     11  O   LIG    1       -4.122  -1.147  30.768  0.00  0.00    -0.291 OA
ATOM     12  C   LIG    1       -4.490   0.988  29.742  0.00  0.00    +0.069 C 
ATOM     13  C   LIG    1       -4.385   1.292  28.263  0.00  0.00    +0.012 C 
ATOM     14  C   LIG    1       -2.958   1.333  27.677  0.00  0.00    +0.019 C 
ATOM     15  C   LIG    1       -2.808   1.627  26.254  0.00  0.00    +0.004 C 
ATOM     16  C   LIG    1       -3.650   2.819  25.755  0.00  0.00    +0.000 C 
ATOM     17  C   LIG    1       -3.493   3.075  24.194  0.00  0.00    +0.003 C 
ATOM     18  C   LIG    1       -2.105   2.994  23.657  0.00  0.00    +0.033 C 
ATOM     19  C   LIG    1       -1.414   4.238  24.232  0.00  0.00    +0.003 C 
ENDROOT
BRANCH   4  20
ATOM     20  O   LIG    1       -1.989   4.155  21.420  0.00  0.00    -0.375 OA
ATOM     21  H   LIG    1       -2.315   3.996  20.531  0.00  0.00    +0.211 HD
ENDBRANCH   4  20
BRANCH   4  22
ATOM     22  C   LIG    1       -2.868   2.019  21.483  0.00  0.00    -0.053 C 
ATOM     23  C   LIG    1       -3.762   1.263  20.970  0.00  0.00    -0.012 C 
ENDBRANCH   4  22
TORSDOF 2
