REMARK  Name = 1u1c-bau.pdb
REMARK                            x       y       z     vdW  Elec       q    Type
REMARK                         _______ _______ _______ _____ _____    ______ ____
ROOT
ATOM      1  C   LIG    1       13.249  99.842  74.162  0.00  0.00    +0.083 A 
ATOM      2  N   LIG    1       12.107 100.644  73.792  0.00  0.00    -0.252 N 
ATOM      3  C   LIG    1       12.273 102.061  73.508  0.00  0.00    +0.355 A 
ATOM      4  O   LIG    1       11.346 102.807  73.138  0.00  0.00    -0.244 OA
ATOM      5  N   LIG    1       13.589 102.586  73.624  0.00  0.00    -0.153 NA
ATOM      6  C   LIG    1       14.703 101.781  73.989  0.00  0.00    +0.281 A 
ATOM      7  O   LIG    1       15.818 102.333  74.047  0.00  0.00    -0.265 OA
ATOM      8  C   LIG    1       14.548 100.372  74.258  0.00  0.00    +0.057 A 
ENDROOT
BRANCH   2   9
ATOM      9  C   LIG    1       10.911 100.011  73.720  0.00  0.00    +0.259 C 
BRANCH   9  10
ATOM     10  O   LIG    1       10.608  98.899  73.042  0.00  0.00    -0.329 OA
BRANCH  10  11
ATOM     11  C   LIG    1       10.378  99.315  71.792  0.00  0.00    +0.176 C 
BRANCH  11  12
ATOM     12  C   LIG    1       10.902  98.612  70.605  0.00  0.00    +0.169 C 
BRANCH  12  13
ATOM     13  O   LIG    1       12.122  97.976  70.572  0.00  0.00    -0.379 OA
ATOM     14  H   LIG    1       12.404  97.870  69.660  0.00  0.00    +0.211 HD
ENDBRANCH  12  13
ENDBRANCH  11  12
ENDBRANCH  10  11
ENDBRANCH   9  10
ENDBRANCH   2   9
BRANCH   8  15
ATOM     15  C   LIG    1       15.776  99.425  74.548  0.00  0.00    +0.059 C 
BRANCH  15  16
ATOM     16  C   LIG    1       16.531  99.033  73.279  0.00  0.00    -0.018 A 
ATOM     17  C   LIG    1       16.010  98.007  72.393  0.00  0.00    -0.004 A 
ATOM     18  C   LIG    1       16.693  97.696  71.158  0.00  0.00    -0.000 A 
ATOM     19  C   LIG    1       17.901  98.412  70.827  0.00  0.00    -0.000 A 
ATOM     20  C   LIG    1       18.412  99.425  71.714  0.00  0.00    -0.000 A 
ATOM     21  C   LIG    1       17.743  99.737  72.935  0.00  0.00    -0.004 A 
ENDBRANCH  15  16
ENDBRANCH   8  15
TORSDOF 7
