REMARK  Name = 1w2g-thm.pdb
REMARK                            x       y       z     vdW  Elec       q    Type
REMARK                         _______ _______ _______ _____ _____    ______ ____
ROOT
ATOM      1  C4*   T A  1       30.499  25.381  87.280  0.00  0.00    +0.173 C 
ATOM      2  C3*   T A  1       29.954  24.080  87.960  0.00  0.00    +0.145 C 
ATOM      3  C2*   T A  1       31.230  23.226  87.737  0.00  0.00    +0.086 C 
ATOM      4  C1*   T A  1       31.483  23.456  86.272  0.00  0.00    +0.211 C 
ATOM      5  O4*   T A  1       31.025  24.776  86.091  0.00  0.00    -0.333 OA
ENDROOT
BRANCH   4   6
ATOM      6  N1    T A  1       32.891  23.443  85.784  0.00  0.00    -0.256 N 
ATOM      7  C6    T A  1       33.832  24.149  86.442  0.00  0.00    +0.082 A 
ATOM      8  C5    T A  1       35.157  24.114  85.968  0.00  0.00    +0.053 A 
ATOM      9  C5M   T A  1       36.231  24.902  86.699  0.00  0.00    +0.038 C 
ATOM     10  C4    T A  1       35.454  23.340  84.819  0.00  0.00    +0.280 A 
ATOM     11  O4    T A  1       36.673  23.275  84.339  0.00  0.00    -0.265 OA
ATOM     12  N3    T A  1       34.482  22.659  84.202  0.00  0.00    -0.153 NA
ATOM     13  C2    T A  1       33.227  22.710  84.678  0.00  0.00    +0.354 A 
ATOM     14  O2    T A  1       32.314  22.059  84.086  0.00  0.00    -0.244 OA
ENDBRANCH   4   6
BRANCH   2  15
ATOM     15  O3*   T A  1       28.603  23.575  87.518  0.00  0.00    -0.382 OA
ATOM     16  H3*   T A  1       28.285  22.920  88.144  0.00  0.00    +0.210 HD
ENDBRANCH   2  15
BRANCH   1  17
ATOM     17  C5*   T A  1       31.336  26.480  88.045  0.00  0.00    +0.169 C 
BRANCH  17  18
ATOM     18  O5*   T A  1       32.341  25.933  88.856  0.00  0.00    -0.379 OA
ATOM     19  H5*   T A  1       32.621  25.089  88.494  0.00  0.00    +0.211 HD
ENDBRANCH  17  18
ENDBRANCH   1  17
TORSDOF 4
