MODEL 1
REMARK minimizedAffinity -4017.79224
REMARK minimizedRMSD -1
REMARK  Name = 1OYT-FSN.pdb
REMARK                            x       y       z     vdW  Elec       q    Type
REMARK                         _______ _______ _______ _____ _____    ______ ____
ROOT
ATOM      1  N   LIG    1       16.802  -9.158  23.923  0.00  0.00    -0.288 N 
ATOM      2  C   LIG    1       16.068  -8.208  24.556  0.00  0.00    +0.267 C 
ATOM      3  C   LIG    1       14.717  -8.473  25.026  0.00  0.00    +0.077 A 
ATOM      4  C   LIG    1       14.114  -9.707  24.657  0.00  0.00    +0.007 A 
ATOM      5  C   LIG    1       12.830  -9.986  25.107  0.00  0.00    -0.003 A 
ATOM      6  C   LIG    1       12.155  -9.062  25.899  0.00  0.00    -0.007 A 
ATOM      7  C   LIG    1       10.747  -9.382  26.302  0.00  0.00    +0.089 C 
ATOM      8  N   LIG    1       10.400 -10.863  26.435  0.00  0.00    -0.271 NA
ATOM      9  C   LIG    1        8.916 -10.629  26.758  0.00  0.00    +0.067 C 
ATOM     10  C   LIG    1        8.279  -9.459  26.010  0.00  0.00    +0.102 C 
ATOM     11  C   LIG    1        7.543  -9.809  24.798  0.00  0.00    +0.233 C 
ATOM     12  N   LIG    1        8.371  -9.552  23.667  0.00  0.00    -0.225 N 
ATOM     13  C   LIG    1        9.615  -9.022  24.076  0.00  0.00    +0.233 C 
ATOM     14  O   LIG    1       10.543  -8.866  23.302  0.00  0.00    -0.274 OA
ATOM     15  C   LIG    1        8.149  -9.985  22.288  0.00  0.00    +0.127 C 
ATOM     16  C   LIG    1        7.632  -8.838  21.463  0.00  0.00    -0.002 A 
ATOM     17  C   LIG    1        8.529  -8.126  20.644  0.00  0.00    -0.000 A 
ATOM     18  C   LIG    1        8.047  -7.084  19.852  0.00  0.00    +0.029 A 
ATOM     19  C   LIG    1        6.679  -6.784  19.909  0.00  0.00    +0.140 A 
ATOM     20  F   LIG    1        6.276  -5.783  19.106  0.00  0.00    -0.204 F 
ATOM     21  C   LIG    1        5.748  -7.452  20.717  0.00  0.00    +0.029 A 
ATOM     22  C   LIG    1        6.255  -8.508  21.516  0.00  0.00    -0.000 A 
ATOM     23  O   LIG    1        6.408 -10.256  24.749  0.00  0.00    -0.274 OA
ATOM     24  C   LIG    1        8.537 -11.003  28.133  0.00  0.00    +0.018 C 
ATOM     25  C   LIG    1        9.644 -12.031  28.413  0.00  0.00    +0.019 C 
ATOM     26  C   LIG    1       10.900 -11.392  27.737  0.00  0.00    +0.072 C 
ATOM     27  C   LIG    1        9.594  -8.765  25.532  0.00  0.00    +0.106 C 
ATOM     28  C   LIG    1       12.745  -7.826  26.261  0.00  0.00    -0.003 A 
ATOM     29  C   LIG    1       14.040  -7.539  25.817  0.00  0.00    +0.007 A 
ATOM     30  N   LIG    1       16.676  -7.005  24.712  0.00  0.00    -0.250 N 
ATOM     31  H   LIG    1       16.190  -6.249  25.173  0.00  0.00    +0.288 HD
ATOM     32  H   LIG    1       17.615  -6.865  24.368  0.00  0.00    +0.288 HD
ATOM     33  H   LIG    1       17.737  -8.945  23.605  0.00  0.00    +0.301 HD
ATOM     34  H   LIG    1       16.414 -10.077  23.769  0.00  0.00    +0.301 HD
ENDROOT
TORSDOF 5
ENDMDL
