REMARK  Name = 1hp0-ad3.pdb
REMARK                            x       y       z     vdW  Elec       q    Type
REMARK                         _______ _______ _______ _____ _____    ______ ____
ROOT
ATOM      1  C4* LIG    1       15.404  26.078  10.204  0.00  0.00    +0.176 C 
ATOM      2  C3* LIG    1       16.503  27.136  10.018  0.00  0.00    +0.171 C 
ATOM      3  C2* LIG    1       16.913  27.568  11.455  0.00  0.00    +0.189 C 
ATOM      4  C1* LIG    1       16.022  26.742  12.388  0.00  0.00    +0.236 C 
ATOM      5  O4* LIG    1       15.246  25.808  11.632  0.00  0.00    -0.331 OA
ENDROOT
BRANCH   4   6
ATOM      6  N   LIG    1       16.631  26.220  13.655  0.00  0.00    -0.284 N 
ATOM      7  C   LIG    1       17.202  26.988  14.700  0.00  0.00    +0.180 A 
ATOM      8  N   LIG    1       17.692  26.298  15.712  0.00  0.00    -0.221 NA
ATOM      9  C   LIG    1       17.442  24.968  15.334  0.00  0.00    +0.130 A 
ATOM     10  C   LIG    1       17.723  23.689  15.966  0.00  0.00    +0.145 A 
ATOM     11  N   LIG    1       17.332  22.545  15.295  0.00  0.00    -0.228 NA
ATOM     12  C   LIG    1       16.706  22.626  14.088  0.00  0.00    +0.102 A 
ATOM     13  C   LIG    1       16.384  23.744  13.388  0.00  0.00    +0.040 A 
ATOM     14  C   LIG    1       16.787  24.905  14.073  0.00  0.00    +0.085 A 
BRANCH  10  15
ATOM     15  N   LIG    1       18.331  23.571  17.143  0.00  0.00    -0.341 N 
ATOM     16  H   LIG    1       18.623  24.397  17.646  0.00  0.00    +0.144 HD
ATOM     17  H   LIG    1       18.501  22.655  17.534  0.00  0.00    +0.144 HD
ENDBRANCH  10  15
ENDBRANCH   4   6
BRANCH   3  18
ATOM     18  O2* LIG    1       16.817  28.951  11.808  0.00  0.00    -0.378 OA
ATOM     19  H2* LIG    1       16.968  29.492  11.029  0.00  0.00    +0.211 HD
ENDBRANCH   3  18
BRANCH   2  20
ATOM     20  O3* LIG    1       15.934  28.152   9.191  0.00  0.00    -0.379 OA
ATOM     21  H3* LIG    1       15.732  27.786   8.327  0.00  0.00    +0.211 HD
ENDBRANCH   2  20
BRANCH   1  22
ATOM     22  C5* LIG    1       16.298  24.865   9.847  0.00  0.00    +0.169 C 
BRANCH  22  23
ATOM     23  O5* LIG    1       15.670  23.598  10.034  0.00  0.00    -0.379 OA
ATOM     24  H5* LIG    1       15.543  23.439  10.972  0.00  0.00    +0.211 HD
ENDBRANCH  22  23
ENDBRANCH   1  22
TORSDOF 6
