REMARK  Name = 1n1m-a3m.pdb
REMARK                            x       y       z     vdW  Elec       q    Type
REMARK                         _______ _______ _______ _____ _____    ______ ____
ROOT
ATOM      1  C   LIG    1      121.526  62.100 100.138  0.00  0.00    +0.187 C 
ENDROOT
BRANCH   1   5
ATOM      2  C   LIG    1      119.645  60.611 103.040  0.00  0.00    +0.019 C 
ATOM      3  C   LIG    1      119.480  62.179 103.256  0.00  0.00    +0.019 C 
ATOM      4  C   LIG    1      119.753  62.654 101.815  0.00  0.00    +0.074 C 
ATOM      5  N   LIG    1      120.987  61.921 101.491  0.00  0.00    -0.250 NA
ATOM      6  C   LIG    1      120.674  60.520 101.820  0.00  0.00    +0.074 C 
ENDBRANCH   1   5
BRANCH   1   7
ATOM      7  O   LIG    1      120.857  62.956  99.276  0.00  0.00    -0.369 OA
ATOM      8  H   LIG    1      120.633  62.487  98.469  0.00  0.00    +0.212 HD
ENDBRANCH   1   7
BRANCH   1   9
ATOM      9  C   LIG    1      122.720  61.452  99.595  0.00  0.00    +0.094 C 
BRANCH   9  10
ATOM     10  N   LIG    1      122.539  61.084  98.163  0.00  0.00    -0.319 NA
ATOM     11  H   LIG    1      123.433  61.108  97.693  0.00  0.00    +0.119 HD
ATOM     12  H   LIG    1      122.150  60.154  98.100  0.00  0.00    +0.119 HD
ENDBRANCH   9  10
BRANCH   9  13
ATOM     13  C   LIG    1      124.022  62.169  99.695  0.00  0.00    +0.018 C 
ATOM     14  C   LIG    1      125.254  61.233  99.012  0.00  0.00    +0.002 C 
ATOM     15  C   LIG    1      124.455  62.442 101.068  0.00  0.00    +0.002 C 
ENDBRANCH   9  13
ENDBRANCH   1   9
TORSDOF 5
