REMARK  Name = 1tt1-kai.pdb
REMARK                            x       y       z     vdW  Elec       q    Type
REMARK                         _______ _______ _______ _____ _____    ______ ____
ROOT
ATOM      1  N   LIG    1        2.169   0.504  24.198  0.00  0.00    -0.289 NA
ATOM      2  H   LIG    1        2.486  -0.180  23.525  0.00  0.00    +0.124 HD
ATOM      3  C   LIG    1        0.889   0.004  24.885  0.00  0.00    +0.073 C 
ATOM      4  C   LIG    1        1.362  -0.119  26.407  0.00  0.00    +0.036 C 
ATOM      5  C   LIG    1        2.436   0.921  26.505  0.00  0.00    +0.042 C 
ATOM      6  CA  LIG    1        3.187   0.701  25.216  0.00  0.00    +0.160 C 
ENDROOT
BRANCH   4   7
ATOM      7  C   LIG    1        0.261  -0.162  27.543  0.00  0.00    -0.043 C 
ATOM      8  C   LIG    1        0.702  -0.288  28.952  0.00  0.00    +0.026 C 
ATOM      9  C   LIG    1       -0.975  -0.087  27.182  0.00  0.00    -0.009 C 
ENDBRANCH   4   7
BRANCH   6  10
ATOM     10  C   LIG    1        4.255  -0.459  25.263  0.00  0.00    +0.379 C 
ATOM     11  OXT LIG    1        4.932  -0.565  26.331  0.00  0.00    -0.244 OA
ATOM     12  O   LIG    1        4.349  -1.140  24.218  0.00  0.00    -0.244 OA
ENDBRANCH   6  10
BRANCH   5  13
ATOM     13  C   LIG    1        1.805   2.382  26.735  0.00  0.00    +0.116 C 
BRANCH  13  14
ATOM     14  C   LIG    1        2.853   3.378  27.249  0.00  0.00    +0.365 C 
ATOM     15  O   LIG    1        3.975   2.961  27.613  0.00  0.00    -0.246 OA
ATOM     16  O   LIG    1        2.478   4.559  27.259  0.00  0.00    -0.246 OA
ENDBRANCH  13  14
ENDBRANCH   5  13
TORSDOF 4
