REMARK  Name = 1uou-cmu.pdb
REMARK                            x       y       z     vdW  Elec       q    Type
REMARK                         _______ _______ _______ _____ _____    ______ ____
ROOT
ATOM      1 CL   LIG    1       -4.802   4.529  30.601  0.00  0.00    -0.076 Cl
ATOM      2  C   LIG    1       -3.589   3.293  30.616  0.00  0.00    +0.130 A 
ATOM      3  C   LIG    1       -3.073   2.830  31.860  0.00  0.00    +0.295 A 
ATOM      4  O   LIG    1       -3.474   3.313  32.893  0.00  0.00    -0.264 OA
ATOM      5  N   LIG    1       -2.145   1.864  31.907  0.00  0.00    -0.151 NA
ATOM      6  C   LIG    1       -1.673   1.349  30.755  0.00  0.00    +0.371 A 
ATOM      7  O   LIG    1       -0.820   0.470  30.761  0.00  0.00    -0.243 OA
ATOM      8  N   LIG    1       -2.149   1.793  29.571  0.00  0.00    -0.193 NA
ATOM      9  C   LIG    1       -3.112   2.764  29.462  0.00  0.00    +0.095 A 
ENDROOT
BRANCH   9  10
ATOM     10  C   LIG    1       -3.629   3.166  28.078  0.00  0.00    +0.121 C 
BRANCH  10  11
ATOM     11  N   LIG    1       -4.265   1.945  27.496  0.00  0.00    -0.256 NA
ATOM     12  C   LIG    1       -3.976   1.396  26.267  0.00  0.00    +0.112 C 
ATOM     13  C   LIG    1       -4.792   0.145  25.944  0.00  0.00    +0.034 C 
ATOM     14  C   LIG    1       -5.824   0.142  27.113  0.00  0.00    +0.020 C 
ATOM     15  C   LIG    1       -5.294   1.131  28.179  0.00  0.00    +0.074 C 
BRANCH  12  16
ATOM     16  N   LIG    1       -3.116   1.927  25.450  0.00  0.00    -0.310 NA
ATOM     17  H   LIG    1       -2.619   2.765  25.715  0.00  0.00    +0.120 HD
ATOM     18  H   LIG    1       -2.945   1.501  24.550  0.00  0.00    +0.120 HD
ENDBRANCH  12  16
ENDBRANCH  10  11
ENDBRANCH   9  10
TORSDOF 3
